!Mechanism imported from ./chemkin/chem.bin                                      
THERMO
    300.000  1000.000  5000.000
H                       h   1               g   300.000  5000.000  1000.000    1
 2.50000000E+00 0.00000000E+00 0.00000000E+00 0.00000000E+00 0.00000000E+00    2
 2.54716200E+04-4.60117600E-01 2.50000000E+00 0.00000000E+00 0.00000000E+00    3
 0.00000000E+00 0.00000000E+00 2.54716200E+04-4.60117600E-01                   4
O                       o   1               g   300.000  5000.000  1000.000    1
 2.54205900E+00-2.75506100E-05-3.10280300E-09 4.55106700E-12-4.36805100E-16    2
 2.92308000E+04 4.92030800E+00 2.94642800E+00-1.63816650E-03 2.42103100E-06    3
-1.60284310E-09 3.89069600E-13 2.91476400E+04 2.96399500E+00                   4
OH                      h   1o   1          g   300.000  5000.000  1000.000    1
 2.88273000E+00 1.01397430E-03-2.27687700E-07 2.17468300E-11-5.12630500E-16    2
 3.88688800E+03 5.59571200E+00 3.63726600E+00 1.85091000E-04-1.67616460E-06    3
 2.38720200E-09-8.43144200E-13 3.60678100E+03 1.35886050E+00                   4
HO2                     h   1o   2          g   300.000  5000.000  1000.000    1
 4.07219100E+00 2.13129600E-03-5.30814500E-07 6.11226900E-11-2.84116400E-15    2
-1.57972700E+02 3.47602900E+00 2.97996300E+00 4.99669700E-03-3.79099700E-06    3
 2.35419200E-09-8.08902400E-13 1.76227300E+02 9.22272400E+00                   4
H2O2                    h   2o   2          g   300.000  5000.000  1000.000    1
 4.57316700E+00 4.33613600E-03-1.47468880E-06 2.34890300E-10-1.43165360E-14    2
-1.80069600E+04 5.01136900E-01 3.38875300E+00 6.56922600E-03-1.48501250E-07    3
-4.62580500E-09 2.47151400E-12-1.76631400E+04 6.78536300E+00                   4
CH                      c   1h   1          g   300.000  5000.000  1000.000    1
 2.19622330E+00 2.34038100E-03-7.05820130E-07 9.00758220E-11-3.85504010E-15    2
 7.08672340E+04 9.17837330E+00 3.20020250E+00 2.07287560E-03-5.13443140E-06    3
 5.73389030E-09-1.95553320E-12 7.04525940E+04 3.33158780E+00                   4
HCO                     c   1h   1o   1     g   300.000  5000.000  1000.000    1
 3.55727100E+00 3.34557200E-03-1.33500600E-06 2.47057200E-10-1.71385000E-14    2
 3.91632400E+03 5.55229900E+00 2.89832900E+00 6.19914600E-03-9.62308400E-06    3
 1.08982490E-08-4.57488500E-12 4.15992200E+03 8.98361400E+00                   4
CH2-1                   c   1h   2          g   300.000  5000.000  1000.000    1
 3.55288860E+00 2.06678830E-03-1.91411600E-07-1.10467340E-10 2.02134960E-14    2
 4.98497540E+04 1.68657010E+00 3.97126510E+00-1.69908880E-04 1.02536890E-06    3
 2.49255080E-09-1.98126630E-12 4.98936760E+04 5.75320720E-02                   4
CH2-3                   c   1h   2          g   300.000  5000.000  1000.000    1
 3.63640780E+00 1.93305660E-03-1.68701630E-07-1.00989940E-10 1.80825580E-14    2
 4.53413400E+04 2.15656070E+00 3.76223710E+00 1.15981910E-03 2.48958540E-07    3
 8.80083560E-10-7.33243540E-13 4.53679060E+04 1.71257760E+00                   4
CH2O                    c   1h   2o   1     g   300.000  5000.000  1000.000    1
 2.99560620E+00 6.68132120E-03-2.62895470E-06 4.73715290E-10-3.21251750E-14    2
-1.53203690E+04 6.91257240E+00 1.65273120E+00 1.26314390E-02-1.88816850E-05    3
 2.05003140E-08-8.41323710E-12-1.48654040E+04 1.37848200E+01                   4
CH3                     c   1h   3          g   300.000  5000.000  1000.000    1
 2.84405160E+00 6.13797410E-03-2.23034520E-06 3.78516080E-10-2.45215900E-14    2
 1.64378090E+04 5.45269730E+00 2.43044280E+00 1.11240990E-02-1.68022030E-05    3
 1.62182870E-08-5.86495260E-12 1.64237810E+04 6.78979400E+00                   4
CH3O                    c   1h   3o   1     g   300.000  5000.000  1000.000    1
 3.77079960E+00 7.87149740E-03-2.65638390E-06 3.94443140E-10-2.11261640E-14    2
 1.27832520E+02 2.92957500E+00 2.10620400E+00 7.21659510E-03 5.33847200E-06    3
-7.37763630E-09 2.07561050E-12 9.78601070E+02 1.31521770E+01                   4
CH3O2                   c   1h   3o   2     g   300.000  5000.000  1000.000    1
 6.68129630E+00 8.00572710E-03-2.71885070E-06 4.06313650E-10-2.19277250E-14    2
 5.26218510E+02-9.94238470E+00 2.09864900E+00 1.57863570E-02 7.56832610E-08    3
-1.12745870E-08 5.66651330E-12 2.06958790E+03 1.50070680E+01                   4
CH4                     c   1h   4          g   300.000  5000.000  1000.000    1
 1.68347880E+00 1.02372360E-02-3.87512860E-06 6.78558490E-10-4.50342310E-14    2
-1.00807870E+04 9.62339500E+00 7.78741480E-01 1.74766830E-02-2.78340900E-05    3
 3.04970800E-08-1.22393070E-11-9.82522850E+03 1.37221950E+01                   4
CH3O2H                  c   1h   4o   2     g   300.000  5000.000  1390.000    1
 8.43117090E+00 8.06817910E-03-2.77094920E-06 4.31332240E-10-2.50692150E-14    2
-1.96678770E+04-1.86137920E+01 3.23442820E+00 1.90129770E-02-1.13386290E-05    3
 3.40306650E-09-4.11830220E-13-1.77197930E+04 9.75951080E+00                   4
C2H                     c   2h   1          g   300.000  5000.000  1000.000    1
 4.51651850E+00 2.07039810E-03-5.27970840E-07 8.18783240E-11-6.02324240E-15    2
 6.63683670E+04-1.70402350E+00 1.98568540E+00 1.33626700E-02-2.23745670E-05    3
 2.00215880E-08-6.86057560E-12 6.69212460E+04 1.04764470E+01                   4
HCCO                    c   2h   1o   1     g   300.000  5000.000  1000.000    1
 6.75807280E+00 2.00040030E-03-2.02760730E-07-1.04113180E-10 1.96516470E-14    2
 1.90151330E+04-9.07126240E+00 5.04796510E+00 4.45347790E-03 2.26828280E-07    3
-1.48209460E-09 2.25074150E-13 1.96589180E+04 4.81843950E-01                   4
C2H2                    c   2h   2          g   300.000  5000.000  1000.000    1
 4.43677040E+00 5.37603910E-03-1.91281670E-06 3.28637890E-10-2.15670950E-14    2
 2.56676640E+04-2.80033830E+00 2.01356220E+00 1.51904460E-02-1.61631890E-05    3
 9.07899180E-09-1.91274600E-12 2.61244430E+04 8.80537800E+00                   4
CH2CO                   c   2h   2o   1     g   300.000  5000.000  1000.000    1
 6.03881740E+00 5.80484050E-03-1.92095380E-06 2.79448460E-10-1.45886750E-14    2
-8.58340230E+03-7.65758130E+00 2.97497080E+00 1.21187120E-02-2.34504570E-06    3
-6.46668500E-09 3.90564920E-12-7.63263670E+03 8.67355250E+00                   4
C2H3                    c   2h   3          g   300.000  5000.000  1000.000    1
 5.93346790E+00 4.01774560E-03-3.96673950E-07-1.44126660E-10 2.37864350E-14    2
 3.18543460E+04-8.53031250E+00 2.45927640E+00 7.37147640E-03 2.10987290E-06    3
-1.32164210E-09-1.18478380E-12 3.33522500E+04 1.15562020E+01                   4
CH2CHO                  c   2h   3o   1     g   300.000  5000.000  1000.000    1
 5.97566990E+00 8.13059140E-03-2.74362450E-06 4.07030410E-10-2.17601710E-14    2
 4.90321780E+02-5.04525090E+00 3.40906240E+00 1.07385740E-02 1.89149250E-06    3
-7.15858310E-09 2.86738510E-12 1.52147660E+03 9.55829050E+00                   4
CH3CO                   c   2h   3o   1     g   300.000  5000.000  1000.000    1
 5.61227890E+00 8.44988600E-03-2.85414720E-06 4.23837630E-10-2.26840370E-14    2
-5.18786330E+03-3.27494910E+00 3.12527850E+00 9.77822020E-03 4.52144830E-06    3
-9.00946160E-09 3.19371790E-12-4.10850780E+03 1.12288540E+01                   4
C2H4                    c   2h   4          g   300.000  5000.000  1000.000    1
 3.52841880E+00 1.14851850E-02-4.41838530E-06 7.84460050E-10-5.26684850E-14    2
 4.42828860E+03 2.23038910E+00-8.61487990E-01 2.79616280E-02-3.38867720E-05    3
 2.78515220E-08-9.73787890E-12 5.57304590E+03 2.42114870E+01                   4
CH3CHO                  c   2h   4o   1     g   300.000  5000.000  1000.000    1
 5.86865040E+00 1.07942410E-02-3.64553030E-06 5.41291230E-10-2.89684420E-14    2
-2.26456870E+04-6.01294610E+00 2.50569530E+00 1.33699070E-02 4.67195330E-06    3
-1.12814010E-08 4.26356610E-12-2.12458870E+04 1.33508870E+01                   4
C2H5                    c   2h   5          g   300.000  5000.000  1000.000    1
 7.19048020E+00 6.48407730E-03-6.42806470E-07-2.34787940E-10 3.88087730E-14    2
 1.06745490E+04-1.47808920E+01 2.69070170E+00 8.71913320E-03 4.41983870E-06    3
 9.33870310E-10-3.92777350E-12 1.28704040E+04 1.21381950E+01                   4
C2H5O                   c   2h   5o   1     g   300.000  5000.000  1000.000    1
 6.01143460E+00 1.21652190E-02-4.04496040E-06 5.90765880E-10-3.09695950E-14    2
-4.93669920E+03-6.80334280E+00 1.73025040E+00 1.69084890E-02 3.99962210E-06    3
-1.37111800E-08 5.76436030E-12-3.29224830E+03 1.73229520E+01                   4
C3H2                    c   3h   2          g   300.000  5000.000  1000.000    1
 6.53085300E+00 5.87031600E-03-1.72077600E-06 2.12749800E-10-8.29191000E-15    2
 5.11521300E+04-1.12272780E+01 2.69107700E+00 1.48036640E-02-3.25055100E-06    3
-8.64436300E-09 5.28487700E-12 5.21907200E+04 8.75739100E+00                   4
C3H3                    c   3h   3          g   300.000  5000.000  1000.000    1
 8.09162520E+00 3.73728500E-03 1.38866470E-06-1.22986040E-09 2.06815850E-13    2
 3.54377930E+04-1.82044680E+01 2.50973220E+00 1.71038660E-02-4.57108580E-06    3
-8.28415740E-09 5.43622870E-12 3.70406800E+04 1.10112640E+01                   4
C3H4                    c   3h   4          g   300.000  5000.000  1000.000    1
 9.77625600E+00 5.30213800E-03-3.70111800E-07-3.02638600E-10 5.08958100E-14    2
 1.95497200E+04-3.07706100E+01 2.53983100E+00 1.63343700E-02-1.76495000E-06    3
-4.64736500E-09 1.72913100E-12 2.25124300E+04 9.93570200E+00                   4
C3H5                    c   3h   5          g   300.000  5000.000  1000.000    1
 7.90919780E+00 1.21152550E-02-4.11758630E-06 6.15667960E-10-3.32357330E-14    2
 1.23541560E+04-1.96723330E+01-5.41004000E-01 2.72841010E-02-9.63653290E-07    3
-1.91294620E-08 9.83941750E-12 1.51303950E+04 2.60673370E+01                   4
C3H6                    c   3h   6          g   300.000  5000.000  1000.000    1
 6.73225700E+00 1.49083360E-02-4.94989900E-06 7.21202200E-10-3.76620400E-14    2
-9.23570300E+02-1.33133480E+01 1.49330710E+00 2.09251700E-02 4.48679400E-06    3
-1.66891210E-08 7.15814600E-12 1.07482640E+03 1.61453400E+01                   4
N-C3H7                  c   3h   7          g   300.000  5000.000  1000.000    1
 7.97829000E+00 1.57611340E-02-5.17324300E-06 7.44389200E-10-3.82497800E-14    2
 7.57940200E+03-1.93561100E+01 1.92253600E+00 2.47892700E-02 1.81024900E-06    3
-1.78326500E-08 8.58299600E-12 9.71328100E+03 1.39927150E+01                   4
C3H8                    c   3h   8          g   300.000  5000.000  1000.000    1
 7.52521700E+00 1.88903400E-02-6.28392400E-06 9.17937300E-10-4.81241000E-14    2
-1.64645480E+04-1.78439000E+01 8.96920800E-01 2.66898600E-02 5.43142500E-06    3
-2.12600000E-08 9.24333000E-12-1.39549180E+04 1.93553300E+01                   4
C4H2                    c   4h   2          g   300.000  5000.000  1000.000    1
 9.03140740E+00 6.04725260E-03-1.94878880E-06 2.75486300E-10-1.38560800E-14    2
 4.98634000E+04-2.38506770E+01 4.00519180E+00 1.98100020E-02-9.86587750E-06    3
-6.63515820E-09 6.07741290E-12 5.11566930E+04 1.84573650E+00                   4
N-C4H3                  c   4h   3          g   300.000  5000.000  1000.000    1
 5.43282790E+00 1.68609810E-02-9.43131090E-06 2.57038950E-09-2.74563090E-13    2
 6.16006800E+04-1.56739810E+00-3.16841130E-01 4.69121000E-02-6.80938100E-05    3
 5.31799210E-08-1.65230050E-11 6.24761990E+04 2.46225590E+01                   4
N-C4H5                  c   4h   5          g   300.000  5000.000  1000.000    1
 1.28659710E+01 7.94336900E-03-8.62646600E-07-4.65563500E-10 8.95113100E-14    2
 3.78355200E+04-4.18250200E+01 2.99524000E+00 2.28845600E-02 1.97547100E-06    3
-1.14824540E-08 3.19782300E-12 4.14221800E+04 1.28945390E+01                   4
C4H7                    c   4h   7          g   300.000  5000.000  1000.000    1
 5.44066200E+00 2.74460300E-02-1.36549600E-05 3.34035200E-09-3.29005000E-13    2
 1.90371200E+04-2.87596500E+00 9.27815100E+00-2.95630500E-02 1.63286600E-04    3
-2.00057600E-07 7.93460500E-11 1.96381300E+04-1.29655300E+01                   4
C4H8-1                  c   4h   8          g   300.000  5000.000  1000.000    1
 2.05358410E+00 3.43505070E-02-1.58831970E-05 3.30896620E-09-2.53610450E-13    2
-2.13972310E+03 1.55432010E+01 1.18113800E+00 3.08533800E-02 5.08652470E-06    3
-2.46548880E-08 1.11101930E-11-1.79040040E+03 2.10624690E+01                   4
C4H9-1                  c   4h   9          g   300.000  5000.000  1000.000    1
 9.00491050E+00 2.40033190E-02-8.95518680E-06 1.53225940E-09-9.82470400E-14    2
 3.46301120E+03-2.05251920E+01 2.18641570E+00 3.30049660E-02 3.03012080E-06    3
-2.40407200E-08 1.13063770E-11 5.89791800E+03 1.72541660E+01                   4
C6H3                    c   6h   3          g   300.000  5000.000  1000.000    1
 5.81883430E+00 2.79334080E-02-1.78254270E-05 5.37025360E-09-6.17076270E-13    2
 8.51882500E+04-9.21478270E-01 1.17906190E+00 5.55473600E-02-7.30761680E-05    3
 5.20767360E-08-1.50469640E-11 8.56473120E+04 1.91791990E+01                   4
N-C6H5                  c   6h   5          g   300.000  5000.000  1000.000    1
 1.60700680E+01 8.18995390E-03 1.73251650E-06-2.06241850E-09 3.62923450E-13    2
 6.46168670E+04-5.61637420E+01-6.11357690E-01 6.50826100E-02-7.82623970E-05    3
 5.30308280E-08-1.49466830E-11 6.88053750E+04 2.76354680E+01                   4
C6H5O                   c   6h   5o   1     g   300.000  5000.000  1000.000    1
 1.38339840E+01 1.76184030E-02-6.06962570E-06 9.19881730E-10-5.04491810E-14    2
-6.92125490E+02-5.03929900E+01-1.82194330E+00 4.81225100E-02-4.67923020E-06    3
-3.40185940E-08 1.86496370E-11 4.24291800E+03 3.35261990E+01                   4
C6H5OH                  c   6h   6o   1     g   300.000  5000.000  1000.000    1
 1.49120730E+01 1.83781350E-02-6.19831280E-06 9.19832210E-10-4.92095650E-14    2
-1.83751990E+04-5.59241030E+01-1.69565390E+00 5.22712990E-02-7.20240500E-06    3
-3.58596030E-08 2.04490730E-11-1.32841210E+04 3.25421600E+01                   4
A1                      c   6h   6          g   300.000  5000.000  1000.000    1
 1.72469940E+01 3.84201640E-03 8.27762320E-06-4.89611200E-09 7.60645450E-13    2
 2.66460550E+03-7.19451750E+01-4.89986800E+00 5.98069320E-02-3.67100870E-05    3
 3.27403990E-09 3.76008860E-12 9.18245700E+03 4.40956420E+01                   4
A1-                     c   6h   5          g   300.000  5000.000  1000.000    1
 1.44934390E+01 7.57126880E-03 3.78945420E-06-3.07695000E-09 5.13478200E-13    2
 3.31899770E+04-5.42889400E+01-4.90761470E+00 5.97907710E-02-4.56398270E-05    3
 1.49649930E-08-9.17678260E-13 3.87334100E+04 4.65677800E+01                   4
A1C2H                   c   8h   6          g   300.000  5000.000  1000.000    1
 2.40907590E+01 7.82324000E-04 1.14539640E-05-6.16205040E-09 9.33466850E-13    2
 2.74294450E+04-1.04996310E+02-5.26450160E+00 8.45110420E-02-7.65978480E-05    3
 3.32169780E-08-4.76730630E-12 3.55662420E+04 4.63788150E+01                   4
A1C2H-                  c   8h   5          g   300.000  5000.000  1000.000    1
 1.23595010E+01 2.54533570E-02-1.06065540E-05 1.89146030E-09-1.06306220E-13    2
 6.09304610E+04-4.09002080E+01-4.44958590E+00 7.69950670E-02-6.66170380E-05    3
 2.50386820E-08-1.97566010E-12 6.52259260E+04 4.44279480E+01                   4
A1C2H*                  c   8h   5          g   300.000  5000.000  1000.000    1
 2.86861570E+01-1.38698630E-02 2.27211860E-05-9.98822710E-09 1.40858510E-12    2
 5.60473090E+04-1.27503340E+02-2.93242170E+00 6.60436750E-02-3.95004750E-05    3
-3.18303810E-09 8.53003870E-12 6.53240430E+04 3.80586850E+01                   4
N-A1C2H2                c   8h   7          g   300.000  5000.000  1000.000    1
 3.04331510E+01-1.39651820E-02 2.54169720E-05-1.13541740E-08 1.60920500E-12    2
 3.57387190E+04-1.34164920E+02-4.48999310E+00 7.87507890E-02-6.23769590E-05    3
 2.19521400E-08-1.69609550E-12 4.59029490E+04 4.79807590E+01                   4
I-A1C2H2                c   8h   7          g   300.000  5000.000  1000.000    1
 2.43655240E+01 1.12621440E-03 1.29316700E-05-6.96411460E-09 1.05401450E-12    2
 3.35491210E+04-1.04620670E+02-2.59715840E+00 6.34543900E-02-2.08523120E-05    3
-2.26046240E-08 1.51128690E-11 4.17073750E+04 3.78934170E+01                   4
CO                      c   1o   1          g   300.000  5000.000  1000.000    1
 3.02507800E+00 1.44268850E-03-5.63082700E-07 1.01858130E-10-6.91095100E-15    2
-1.42683500E+04 6.10821700E+00 3.26245100E+00 1.51194090E-03-3.88175500E-06    3
 5.58194400E-09-2.47495100E-12-1.43105390E+04 4.84889700E+00                   4
CO2                     c   1o   2          g   300.000  5000.000  1000.000    1
 4.45362300E+00 3.14016800E-03-1.27841050E-06 2.39399600E-10-1.66903330E-14    2
-4.89669600E+04-9.55395900E-01 2.27572400E+00 9.92207200E-03-1.04091130E-05    3
 6.86668600E-09-2.11728000E-12-4.83731400E+04 1.01884880E+01                   4
H2                      h   2               g   300.000  5000.000  1000.000    1
 2.99142300E+00 7.00064400E-04-5.63382800E-08-9.23157800E-12 1.58275190E-15    2
-8.35034000E+02-1.35511010E+00 3.29812400E+00 8.24944100E-04-8.14301500E-07    3
-9.47543400E-11 4.13487200E-13-1.01252090E+03-3.29409400E+00                   4
H2O                     h   2o   1          g   300.000  5000.000  1000.000    1
 2.67214500E+00 3.05629300E-03-8.73026000E-07 1.20099640E-10-6.39161800E-15    2
-2.98992100E+04 6.86281700E+00 3.38684200E+00 3.47498200E-03-6.35469600E-06    3
 6.96858100E-09-2.50658800E-12-3.02081100E+04 2.59023200E+00                   4
O2                      o   2               g   300.000  5000.000  1000.000    1
 3.69757800E+00 6.13519700E-04-1.25884200E-07 1.77528100E-11-1.13643540E-15    2
-1.23393010E+03 3.18916500E+00 3.21293600E+00 1.12748640E-03-5.75615000E-07    3
 1.31387730E-09-8.76855400E-13-1.00524900E+03 6.03473700E+00                   4
AR                      ar  1               g   300.000  5000.000  1000.000    1
 2.50000000E+00 0.00000000E+00 0.00000000E+00 0.00000000E+00 0.00000000E+00    2
-7.45375000E+02 4.36600000E+00 2.50000000E+00 0.00000000E+00 0.00000000E+00    3
 0.00000000E+00 0.00000000E+00-7.45375000E+02 4.36600000E+00                   4
N2                      n   2               g   300.000  5000.000  1000.000    1
 2.92664000E+00 1.48797680E-03-5.68476000E-07 1.00970380E-10-6.75335100E-15    2
-9.22797700E+02 5.98052800E+00 3.29867700E+00 1.40824040E-03-3.96322200E-06    3
 5.64151500E-09-2.44485400E-12-1.02089990E+03 3.95037200E+00                   4
HOCH2O                  c   1h   3o   2     g   300.000  5000.000  1452.000    1
 6.39521520E+00 7.43673040E-03-2.50422350E-06 3.84879710E-10-2.21778690E-14    2
-2.25557760E+04-6.63865580E+00 4.11183150E+00 7.53850700E-03 3.77337370E-06    3
-5.38746000E-09 1.45615890E-12-2.12471920E+04 7.46807250E+00                   4
HOCHO                   c   1h   2o   2     g   300.000  5000.000  1376.000    1
 6.68733010E+00 5.14289370E-03-1.82238510E-06 2.89719160E-10-1.70892200E-14    2
-4.83995400E+04-1.13104800E+01 1.43548180E+00 1.63363020E-02-1.06257420E-05    3
 3.32132980E-09-4.02176100E-13-4.64616500E+04 1.72885800E+01                   4
OCHO                    c   1h   1o   2     g   300.000  5000.000  1690.000    1
 6.12628780E+00 3.75602930E-03-1.42010350E-06 2.36429200E-10-1.44167650E-14    2
-2.17698470E+04-8.01574690E+00 1.35213450E+00 1.50082000E-02-1.09896140E-05    3
 3.73679840E-09-4.81014500E-13-2.02253650E+04 1.74373150E+01                   4
O2CHO                   c   1h   1o   3     g   300.000  5000.000  1368.000    1
 7.24075140E+00 4.63312950E-03-1.63694000E-06 2.59706690E-10-1.52964700E-14    2
-1.87027620E+04-6.49547210E+00 3.96059310E+00 1.06002280E-02-5.25713350E-06    3
 1.01716730E-09-2.87487600E-14-1.73599380E+04 1.17807480E+01                   4
HO2CHO                  c   1h   2o   3     g   300.000  5000.000  1378.000    1
 9.87503880E+00 4.64663710E-03-1.67230520E-06 2.68624410E-10-1.59595230E-14    2
-3.80502500E+04-2.24939150E+01 2.42464730E+00 2.19706380E-02-1.68705550E-05    3
 6.25612190E-09-9.11645840E-13-3.54828010E+04 1.75027800E+01                   4
C5H11-1                 c   5h  11          g   300.000  5000.000  1397.000    1
 1.53234740E+01 2.39041200E-02-8.14771620E-06 1.26176240E-09-7.30677340E-14    2
-9.23241640E+02-5.49528860E+01-9.05255910E-01 6.10632850E-02-4.09491820E-05    3
 1.46093470E-08-2.18859610E-12 4.83995300E+03 3.25574960E+01                   4
C5H11-2                 c   5h  11          g   300.000  5000.000  1377.000    1
 1.50998010E+01 2.37225330E-02-8.01388900E-06 1.23431040E-09-7.12300120E-14    2
-2.33420040E+03-5.29613980E+01 4.98943600E-01 5.09850180E-02-2.40687490E-05    3
 3.59465210E-09 3.01383100E-13 3.40702370E+03 2.78600950E+01                   4
L-C7H14                 c   7h  14          g   300.000  5000.000  1392.000    1
 2.10898040E+01 3.10607880E-02-1.05644790E-05 1.63405780E-09-9.45598220E-14    2
-1.83260060E+04-8.44391110E+01-1.67720550E+00 8.24611600E-02-5.46504110E-05    3
 1.87862300E-08-2.65737980E-12-1.02168600E+04 3.85068030E+01                   4
L-C7H15                 c   7h  15          g   300.000  5000.000  1382.000    1
 2.16368840E+01 3.23324800E-02-1.09273810E-05 1.68357060E-09-9.71774090E-14    2
-1.05873620E+04-8.52209650E+01-3.79155770E-02 7.56726570E-02-4.07473630E-05    3
 9.32678940E-09-4.92360750E-13-2.35605300E+03 3.37321510E+01                   4
NC7H16                  c   7h  16          g   300.000  5000.000  1391.000    1
 2.22148970E+01 3.47675750E-02-1.18407130E-05 1.83298480E-09-1.06130270E-13    2
-3.42760080E+04-9.23040200E+01-1.26836190E+00 8.54355820E-02-5.25346790E-05    3
 1.62945720E-08-2.02394930E-12-2.56586570E+04 3.53732910E+01                   4
L-C7H15O2               c   7h  15o   2     g   300.000  5000.000  1392.000    1
 2.52622020E+01 3.46652050E-02-1.18812590E-05 1.84687320E-09-1.07234170E-13    2
-2.93375180E+04-9.94929010E+01 1.51378170E+00 8.85572750E-02-5.92457150E-05    3
 2.11801860E-08-3.20741720E-12-2.08142510E+04 2.88082250E+01                   4
R5-HEOOH-P              c   7h  15o   2     g   300.000  5000.000  1383.000    1
 2.72290220E+01 3.24921900E-02-1.11259760E-05 1.72928880E-09-1.00428330E-13    2
-2.24977070E+04-1.08901780E+02 1.11146210E+00 8.91595390E-02-5.67352380E-05    3
 1.78890090E-08-2.22260210E-12-1.29868310E+04 3.29200050E+01                   4
R5-HEOOH-S              c   7h  15o   2     g   300.000  5000.000  1389.000    1
 2.74034780E+01 3.27527890E-02-1.12991770E-05 1.76444650E-09-1.02786940E-13    2
-2.48636650E+04-1.10201980E+02 8.49786010E-01 9.25107200E-02-6.25359830E-05    3
 2.17880390E-08-3.12720400E-12-1.53640680E+04 3.32997490E+01                   4
R6-HEOOH-P              c   7h  15o   2     g   300.000  5000.000  1383.000    1
 2.72290220E+01 3.24921900E-02-1.11259760E-05 1.72928880E-09-1.00428330E-13    2
-2.24977070E+04-1.08901780E+02 1.11146210E+00 8.91595390E-02-5.67352380E-05    3
 1.78890090E-08-2.22260210E-12-1.29868310E+04 3.29200050E+01                   4
R6-HEOOH-S              c   7h  15o   2     g   300.000  5000.000  1389.000    1
 2.74034780E+01 3.27527890E-02-1.12991770E-05 1.76444650E-09-1.02786940E-13    2
-2.48636650E+04-1.10201980E+02 8.49786010E-01 9.25107200E-02-6.25359830E-05    3
 2.17880390E-08-3.12720400E-12-1.53640680E+04 3.32997490E+01                   4
R7-HEOOH-P              c   7h  15o   2     g   300.000  5000.000  1383.000    1
 2.72290220E+01 3.24921900E-02-1.11259760E-05 1.72928880E-09-1.00428330E-13    2
-2.24977070E+04-1.08901780E+02 1.11146210E+00 8.91595390E-02-5.67352380E-05    3
 1.78890090E-08-2.22260210E-12-1.29868310E+04 3.29200050E+01                   4
R7-HEOOH-S              c   7h  15o   2     g   300.000  5000.000  1389.000    1
 2.74034780E+01 3.27527890E-02-1.12991770E-05 1.76444650E-09-1.02786940E-13    2
-2.48636650E+04-1.10201980E+02 8.49786010E-01 9.25107200E-02-6.25359830E-05    3
 2.17880390E-08-3.12720400E-12-1.53640680E+04 3.32997490E+01                   4
R5-HEOOHO2-P            c   7h  15o   4     g   300.000  5000.000  1388.000    1
 3.20144350E+01 3.40056000E-02-1.18415860E-05 1.86060350E-09-1.08851010E-13    2
-4.27171860E+04-1.31118240E+02 1.89718000E+00 1.06229800E-01-8.02770220E-05    3
 3.23649090E-08-5.45850470E-12-3.22790230E+04 3.02474610E+01                   4
R5-HEOOHO2-S            c   7h  15o   4     g   300.000  5000.000  1390.000    1
 3.28358300E+01 3.32767280E-02-1.15833280E-05 1.81958640E-09-1.06434420E-13    2
-4.52873000E+04-1.35975710E+02 1.40912480E+00 1.10720830E-01-8.71178070E-05    3
 3.63662750E-08-6.28350690E-12-3.46304790E+04 3.16223380E+01                   4
R6-HEOOHO2-P            c   7h  15o   4     g   300.000  5000.000  1388.000    1
 3.20144350E+01 3.40056000E-02-1.18415860E-05 1.86060350E-09-1.08851010E-13    2
-4.27171860E+04-1.31118240E+02 1.89718000E+00 1.06229800E-01-8.02770220E-05    3
 3.23649090E-08-5.45850470E-12-3.22790230E+04 3.02474610E+01                   4
R6-HEOOHO2-S            c   7h  15o   4     g   300.000  5000.000  1390.000    1
 3.28358300E+01 3.32767280E-02-1.15833280E-05 1.81958640E-09-1.06434420E-13    2
-4.52873000E+04-1.35975710E+02 1.40912480E+00 1.10720830E-01-8.71178070E-05    3
 3.63662750E-08-6.28350690E-12-3.46304790E+04 3.16223380E+01                   4
R7-HEOOHO2-P            c   7h  15o   4     g   300.000  5000.000  1388.000    1
 3.20144350E+01 3.40056000E-02-1.18415860E-05 1.86060350E-09-1.08851010E-13    2
-4.27171860E+04-1.31118240E+02 1.89718000E+00 1.06229800E-01-8.02770220E-05    3
 3.23649090E-08-5.45850470E-12-3.22790230E+04 3.02474610E+01                   4
R7-HEOOHO2-S            c   7h  15o   4     g   300.000  5000.000  1390.000    1
 3.28358300E+01 3.32767280E-02-1.15833280E-05 1.81958640E-09-1.06434420E-13    2
-4.52873000E+04-1.35975710E+02 1.40912480E+00 1.10720830E-01-8.71178070E-05    3
 3.63662750E-08-6.28350690E-12-3.46304790E+04 3.16223380E+01                   4
R5-O-HEPOOH-P           c   7h  14o   3     g   300.000  5000.000  1387.000    1
 3.14039860E+01 2.85485200E-02-9.69585690E-06 1.50017010E-09-8.68909490E-14    2
-5.74044720E+04-1.31576610E+02-1.01240540E+00 1.08525210E-01-8.59990880E-05    3
 3.49272960E-08-5.73789850E-12-4.66314950E+04 4.09175090E+01                   4
R5-O-HEPOOH-S           c   7h  14o   3     g   300.000  5000.000  1388.000    1
 3.05981610E+01 2.97258860E-02-1.01972580E-05 1.58732410E-09-9.22942420E-14    2
-6.09638920E+04-1.27837880E+02-1.45570670E+00 1.08772380E-01-8.59757430E-05    3
 3.51095320E-08-5.83436500E-12-5.02602030E+04 4.28185430E+01                   4
R6-O-HEPOOH-P           c   7h  14o   3     g   300.000  5000.000  1388.000    1
 2.90744510E+01 3.17177460E-02-1.10262650E-05 1.73053610E-09-1.01161700E-13    2
-5.82345480E+04-1.18064320E+02 2.21629330E+00 9.47373760E-02-6.90473650E-05    3
 2.67820400E-08-4.36392180E-12-4.87965510E+04 2.63157130E+01                   4
R6-O-HEPOOH-S           c   7h  14o   3     g   300.000  5000.000  1387.000    1
 2.88330390E+01 3.20168100E-02-1.11508460E-05 1.75226160E-09-1.02520450E-13    2
-6.20142470E+04-1.17499700E+02 1.52936690E+00 9.58173470E-02-6.96688520E-05    3
 2.69540380E-08-4.38728130E-12-5.23839540E+04 2.93851330E+01                   4
R7-O-HEPOOH-P           c   7h  14o   3     g   300.000  5000.000  1388.000    1
 2.90744510E+01 3.17177460E-02-1.10262650E-05 1.73053610E-09-1.01161700E-13    2
-5.82345480E+04-1.18064320E+02 2.21629330E+00 9.47373760E-02-6.90473650E-05    3
 2.67820400E-08-4.36392180E-12-4.87965510E+04 2.63157130E+01                   4
R7-O-HEPOOH-S           c   7h  14o   3     g   300.000  5000.000  1387.000    1
 2.88330390E+01 3.20168100E-02-1.11508460E-05 1.75226160E-09-1.02520450E-13    2
-6.20142470E+04-1.17499700E+02 1.52936690E+00 9.58173470E-02-6.96688520E-05    3
 2.69540380E-08-4.38728130E-12-5.23839540E+04 2.93851330E+01                   4
C5H10-1                 c   5h  10          g   300.000  5000.000  1392.000    1
 1.45851540E+01 2.24072470E-02-7.63348020E-06 1.18188970E-09-6.84385140E-14    2
-1.00898200E+04-5.23683940E+01-1.06223480E+00 5.74218290E-02-3.74486890E-05    3
 1.27364990E-08-1.79609790E-12-4.46546670E+03 3.22739790E+01                   4
R5-C7H14O               c   7h  14o   1     g   300.000  5000.000  1400.000    1
 2.36576560E+01 3.26661810E-02-1.12033720E-05 1.74258160E-09-1.01232860E-13    2
-4.61139810E+04-1.02440730E+02-7.32465040E+00 1.09089080E-01-8.42725070E-05    3
 3.38514640E-08-5.54204870E-12-3.57842590E+04 6.24742750E+01                   4
N-C5H11CHO              c   6h  12o   1     g   300.000  5000.000  1384.000    1
 1.98891040E+01 2.71869340E-02-9.27391510E-06 1.43744160E-09-8.33090760E-14    2
-3.97523440E+04-7.60741670E+01 1.37517190E+00 6.65669690E-02-4.04423050E-05    3
 1.23836270E-08-1.52905860E-12-3.28740990E+04 2.48343930E+01                   4
N-C5H11CO               c   6h  11o   1     g   300.000  5000.000  1383.000    1
 1.94783810E+01 2.50466030E-02-8.54861350E-06 1.32557940E-09-7.68503300E-14    2
-2.07923940E+04-7.21995580E+01 2.14479070E+00 6.17863560E-02-3.74134690E-05    3
 1.13283800E-08-1.36917700E-12-1.43451170E+04 2.23128040E+01                   4
N-C4H9COCH2             c   6h  11o   1     g   300.000  5000.000  1387.000    1
 1.98575870E+01 2.52406370E-02-8.72522620E-06 1.36422050E-09-7.95374880E-14    2
-2.20531960E+04-7.71141000E+01 6.57240680E-01 6.91820220E-02-4.79956180E-05    3
 1.78114860E-08-2.80456390E-12-1.51806660E+04 2.65180220E+01                   4
N-C3H7CHO               c   4h   8o   1     g   300.000  5000.000  1378.000    1
 1.35988070E+01 1.81652470E-02-6.17844460E-06 9.55980210E-10-5.53442960E-14    2
-3.15845350E+04-4.51790230E+01 1.87415960E+00 4.19240320E-02-2.35148780E-05    3
 6.26913670E-09-6.09443910E-13-2.71032190E+04 1.91568570E+01                   4