/*--------------------------------*- C++ -*----------------------------------*\
| =========                 |                                                 |
| \\      /  F ield         | OpenFOAM: The Open Source CFD Toolbox           |
|  \\    /   O peration     | Version:  2.4.0                                 |
|   \\  /    A nd           | Web:      www.OpenFOAM.org                      |
|    \\/     M anipulation  |                                                 |
\*---------------------------------------------------------------------------*/
FoamFile
{
    version     2.0;
    format      ascii;
    class       dictionary;
    location    "system";
    object      fvSchemes;
}
// * * * * * * * * * * * * * * * * * * * * * * * * * * * * * * * * * * * * * //

ddtSchemes
{
    default         Euler;
}

gradSchemes
{
    default         Gauss linear;
}

divSchemes
{
    //default         none;
    default         Gauss linear;
    div(phi,U)      Gauss upwind;
    div(phid,p)     Gauss upwind;
    div(phi,K)      Gauss linear;
    div(phi,k)      Gauss upwind;
    div(phi,epsilon) Gauss upwind;
    div(U)          Gauss linear;
    div((muEff*dev2(T(grad(U))))) Gauss linear;
    div(phi,Yi_h)   Gauss upwind;
    div(meshPhi,p) Gauss upwind;
}

laplacianSchemes
{
    //default         Gauss linear limited corrected 0.5;
    default         Gauss linear orthogonal;
}

interpolationSchemes
{
    default         linear limited correced 0.5;
    //default         linear;
}

snGradSchemes
{
    //default         limited corrected 0.5;
    default         orthogonal;
}

fluxRequired
{
    default         no;
    p               ;
}


// ************************************************************************* //
