! PAH chemistry and thermal NOx were added to the skeletal mechanism from 
! [Zeuch, T., Moreac, G., Ahmed, S. S., Mauss, F., "A comprehensive skeletal 
! mechanism for the oxidation of n-heptane generated by chemistry-guided reduction", 
! Combustion and Flame 1555 (2008) 651-674]
! This mechanism is designed for calculations around pressure of 50 Bar
! PAH chemistry from by Fabian Mauss (changed A3R5 to PAH)
ELEMENTS
  C  H  O  N  AR
END
SPECIES
H               O               OH              HO2             H2O2            
CH              HCO             CH2-1           CH2-3           CH2O            
CH3             CH3O            CH3O2           CH4             CH3O2H          
C2H             HCCO            C2H2            CH2CO           C2H3            
CH2CHO          CH3CO           C2H4            CH3CHO          C2H5            
C2H5O           C3H2            C3H3            C3H4            C3H5            
C3H6            N-C3H7          C3H8            C4H2            N-C4H3          
N-C4H5          C4H7            C4H8-1          C4H9-1          C6H3            
N-C6H5          C6H5O           C6H5OH          A1              A1-             
A1C2H           A1C2H-          A1C2H*          N-A1C2H2        I-A1C2H2        
CO              CO2             H2              H2O             O2              
AR              N2              HOCH2O          HOCHO           OCHO            
O2CHO           HO2CHO          C5H11-1         C5H11-2         L-C7H14         
L-C7H15         NC7H16         L-C7H15O2       R5-HEOOH-P      R5-HEOOH-S      
R6-HEOOH-P      R6-HEOOH-S      R7-HEOOH-P      R7-HEOOH-S      R5-HEOOHO2-P    
R5-HEOOHO2-S    R6-HEOOHO2-P    R6-HEOOHO2-S    R7-HEOOHO2-P    R7-HEOOHO2-S    
R5-O-HEPOOH-P   R5-O-HEPOOH-S   R6-O-HEPOOH-P   R6-O-HEPOOH-S   R7-O-HEPOOH-P   
R7-O-HEPOOH-S   C5H10-1         R5-C7H14O       N-C5H11CHO      N-C5H11CO       
N-C4H9COCH2     N-C3H7CHO       N-C3H7CO        N-C3H7COCH2     C2H5CHO         
C2H5CO          C2H5COCH2       C2H5COCH3       CH2CH2COCH3     C2H4COC2H5-1    
CH2CH2CHO       CH3COCH2        N-C3H7COC2H4-1  CH3CHCOCH3      C2H5O2          
C2H4O2H         N-C3H7O2        I-C3H7O2        A1C2HAC         A2-X            
A2              A2R5            A2R5-           A2R5C2H         A2R5C2H*        
ANC2HAC         A3R5-           PAH            N               NO              
NO2             
END
REACTIONS
 H+O2=O+OH                                       2.000E+14    0.00   1.679E+04                      
!                                           Rev / 4.953E+11    0.41  -3.950E+02 /                    
 O+H2=H+OH                                       5.100E+04    2.67   6.282E+03                      
!                                           Rev / 3.593E+04    2.61   4.540E+03 /                    
 OH+H2=H+H2O                                     1.000E+08    1.60   3.296E+03                      
!                                           Rev / 6.402E+09    1.28   1.924E+04 /                    
 2OH=O+H2O                                       1.500E+09    1.14   1.003E+02                      
!                                           Rev / 1.363E+11    0.88   1.779E+04 /                    
 H+O2+M=HO2+M                                    2.300E+18   -0.80   0.000E+00                      
!                                           Rev / 9.961E+19   -1.23   5.044E+04 /                    
 CO/ 0.75/CO2/ 1.50/H2O/ 6.50/O2/ 0.40/AR/ 0.35/N2/ 0.40/                                           
 H+HO2=2OH                                       1.500E+14    0.00   1.003E+03                      
!                                           Rev / 1.600E+10    0.84   3.584E+04 /                    
 H+HO2=H2+O2                                     2.500E+13    0.00   6.927E+02                      
!                                           Rev / 1.529E+12    0.48   5.446E+04 /                    
 H+HO2=O+H2O                                     3.000E+13    0.00   1.720E+03                      
!                                           Rev / 2.909E+11    0.57   5.425E+04 /                    
 O+HO2=OH+O2                                     1.800E+13    0.00  -4.060E+02                      
!                                           Rev / 7.755E+11    0.43   5.162E+04 /                    
 OH+HO2=H2O+O2                                   2.890E+13    0.00  -4.999E+02                      
!                                           Rev / 1.131E+14    0.16   6.922E+04 /                    
 2HO2=H2O2+O2                                    4.200E+14    0.00   1.199E+04                      
!                                           Rev / 3.180E+16   -0.31   4.949E+04 /                    
DUPLICATE
 2HO2=H2O2+O2                                    2.500E+11    0.00  -1.242E+03                      
!                                           Rev / 1.893E+13   -0.31   3.626E+04 /                    
DUPLICATE
 2OH(+M)=H2O2(+M)                                1.236E+14   -0.37   0.000E+00                      
      LOW /   3.041E+30   -4.63   2.049E+03   /                                                     
      TROE /    0.47  1.000E+02  2.000E+03  1.000E+15 /                                             
 CO/ 1.90/CO2/ 3.80/H2/ 2.50/H2O/12.00/                                                             
 H+H2O2=HO2+H2                                   1.700E+12    0.00   3.750E+03                      
!                                           Rev / 1.373E+09    0.79   2.001E+04 /                    
 H+H2O2=OH+H2O                                   1.000E+13    0.00   3.583E+03                      
!                                           Rev / 5.518E+07    1.31   7.063E+04 /                    
 O+H2O2=OH+HO2                                   2.800E+13    0.00   6.401E+03                      
!                                           Rev / 1.593E+10    0.73   2.092E+04 /                    
 OH+H2O2=HO2+H2O                                 5.400E+12    0.00   1.003E+03                      
!                                           Rev / 2.793E+11    0.47   3.321E+04 /                    
 2H+M=H2+M                                       1.800E+18   -1.00   0.000E+00                      
!                                           Rev / 4.768E+18   -0.95   1.042E+05 /                    
 CO/ 0.75/CO2/ 1.50/H2O/ 6.50/O2/ 0.40/AR/ 0.35/N2/ 0.40/                                           
 H+OH+M=H2O+M                                    2.200E+22   -2.00   0.000E+00                      
!                                           Rev / 3.730E+24   -2.27   1.202E+05 /                    
 CO/ 0.75/CO2/ 1.50/H2O/ 6.50/O2/ 0.40/AR/ 0.35/N2/ 0.40/                                           
 2O+M=O2+M                                       2.900E+17   -1.00   0.000E+00                      
!                                           Rev / 2.185E+20   -1.41   1.196E+05 /                    
 CO/ 0.75/CO2/ 1.50/H2O/ 6.50/O2/ 0.40/AR/ 0.35/N2/ 0.40/                                           
 OH+CO=H+CO2                                     6.000E+06    1.50  -7.404E+02                      
!                                           Rev / 3.740E+13    0.20   2.536E+04 /                    
 HO2+CO=OH+CO2                                   1.500E+14    0.00   2.357E+04                      
!                                           Rev / 9.975E+16   -0.46   8.451E+04 /                    
 O+CO+M=CO2+M                                    7.100E+13    0.00  -4.538E+03                      
!                                           Rev / 8.257E+20   -1.30   1.240E+05 /                    
 CO/ 0.75/CO2/ 1.50/H2O/ 6.50/O2/ 0.40/AR/ 0.35/N2/ 0.40/                                           
 CO+O2=O+CO2                                     2.500E+12    0.00   4.777E+04                      
!                                           Rev / 3.859E+16   -0.88   5.668E+04 /                    
 O+CH=H+CO                                       4.000E+13    0.00   0.000E+00                      
!                                           Rev / 3.014E+14    0.22   1.752E+05 /                    
 CH+O2=O+HCO                                     3.000E+13    0.00   0.000E+00                      
!                                           Rev / 3.579E+13    0.01   7.183E+04 /                    
 CH+CO2=HCO+CO                                   3.400E+12    0.00   6.927E+02                      
!                                           Rev / 2.628E+08    0.90   6.362E+04 /                    
 CH+H2O=OH+CH2-3                                 1.100E+12    0.00  -7.643E+02                      
!                                           Rev / 4.802E+10    0.24  -1.928E+04 /                    
 CH+H2O=H+CH2O                                   4.600E+12    0.00  -7.643E+02                      
!                                           Rev / 4.828E+17   -0.91   6.019E+04 /                    
 OH+CH=H+HCO                                     3.000E+13    0.00   0.000E+00                      
!                                           Rev / 1.445E+16   -0.40   8.902E+04 /                    
 HCO+M=H+CO+M                                    7.100E+14    0.00   1.679E+04                      
!                                           Rev / 5.951E+12    0.62   4.867E+02 /                    
 CO/ 0.75/CO2/ 1.50/H2O/ 6.50/O2/ 0.40/AR/ 0.35/N2/ 0.40/                                           
 H+HCO=CO+H2                                     9.000E+13    0.00   0.000E+00                      
!                                           Rev / 1.998E+12    0.67   8.790E+04 /                    
 O+HCO=OH+CO                                     3.000E+13    0.00   0.000E+00                      
!                                           Rev / 4.692E+11    0.62   8.616E+04 /                    
 O+HCO=H+CO2                                     3.000E+13    0.00   0.000E+00                      
!                                           Rev / 2.925E+18   -0.68   1.123E+05 /                    
 OH+HCO=CO+H2O                                   1.000E+14    0.00   0.000E+00                      
!                                           Rev / 1.421E+14    0.35   1.038E+05 /                    
 HCO+O2=HO2+CO                                   1.548E+04    2.38  -1.529E+03                      
!                                           Rev / 5.620E+03    2.57   3.260E+04 /                    
 2HCO=CH2O+CO                                    3.000E+13    0.00   0.000E+00                      
!                                           Rev / 9.291E+15   -0.16   7.578E+04 /                    
 H+CH2-3=CH+H2                                   6.000E+12    0.00  -1.791E+03                      
!                                           Rev / 2.147E+12    0.08   7.785E+02 /                    
 O+CH2-3=>2H+CO                                  8.400E+12    0.00   0.000E+00                      
 CH2-3+O2=H+OH+CO                                1.650E+21   -3.30   2.866E+03                      
!                                           Rev / 4.159E+18   -2.64   5.922E+04 /                    
 CH2-3+O2=CO2+H2                                 2.630E+21   -3.30   2.866E+03                      
!                                           Rev / 1.094E+26   -3.89   1.895E+05 /                    
 CH2-3+O2=CO+H2O                                 2.240E+22   -3.30   2.866E+03                      
!                                           Rev / 9.573E+21   -2.91   1.794E+05 /                    
 CH2-3+O2=O+CH2O                                 3.290E+21   -3.30   2.866E+03                      
!                                           Rev / 1.959E+25   -4.04   6.515E+04 /                    
 CH2-3+O2=2H+CO2                                 3.290E+21   -3.30   2.866E+03                      
!                                           Rev / 5.169E+25   -3.94   8.532E+04 /                    
 2CH2-3=C2H2+H2                                  1.200E+13    0.00   8.121E+02                      
!                                           Rev / 1.092E+20   -1.29   1.325E+05 /                    
 2CH2-3=2H+C2H2                                  1.100E+14    0.00   8.121E+02                      
!                                           Rev / 3.779E+20   -1.34   2.830E+04 /                    
 CH2-3+CH3=H+C2H4                                4.200E+13    0.00   0.000E+00                      
!                                           Rev / 7.770E+21   -1.59   6.514E+04 /                    
 CH2-1+M=CH2-3+M                                 9.000E+12    0.00   0.000E+00                      
!                                           Rev / 2.479E+12    0.05   8.802E+03 /                    
 CO/ 0.75/CO2/ 1.50/H2O/ 6.50/O2/ 0.40/AR/ 0.35/N2/ 0.40/                                           
 CH2-1+H2=H+CH3                                  7.000E+13    0.00   0.000E+00                      
!                                           Rev / 1.584E+17   -0.83   1.594E+04 /                    
 CH2-1+O2=H+OH+CO                                3.100E+13    0.00   0.000E+00                      
!                                           Rev / 2.152E+10    0.70   6.516E+04 /                    
 CH2O+M=H+HCO+M                                  5.000E+16    0.00   7.643E+04                      
!                                           Rev / 1.353E+12    0.78  -1.566E+04 /                    
 CO/ 0.75/CO2/ 1.50/H2O/ 6.50/O2/ 0.40/AR/ 0.35/N2/ 0.40/                                           
 H+CH2O=HCO+H2                                   3.200E+10    1.05   3.272E+03                      
!                                           Rev / 2.294E+06    1.88   1.539E+04 /                    
 O+CH2O=OH+HCO                                   4.200E+11    0.57   2.771E+03                      
!                                           Rev / 2.121E+07    1.35   1.315E+04 /                    
 CH2O+CH3=HCO+CH4                                1.000E+11    0.00   6.091E+03                      
!                                           Rev / 1.861E+11    0.01   2.119E+04 /                    
 OH+CH2O=HCO+H2O                                 6.022E+12    0.00   0.000E+00                      
!                                           Rev / 2.764E+10    0.51   2.806E+04 /                    
 HO2+CH2O=H2O2+HCO                               4.124E+04    2.50   1.020E+04                      
!                                           Rev / 3.660E+03    2.54   6.053E+03 /                    
 CH2O+O2=HO2+HCO                                 6.000E+13    0.00   4.077E+04                      
!                                           Rev / 7.033E+10    0.35  -8.795E+02 /                    
 CH3+M=H+CH2-3+M                                 1.000E+16    0.00   9.052E+04                      
!                                           Rev / 4.596E+11    0.83  -2.082E+04 /                    
 CO/ 0.75/CO2/ 1.50/H2O/ 6.50/O2/ 0.40/AR/ 0.35/N2/ 0.40/                                           
 CH3+M=CH+H2+M                                   6.900E+14    0.00   8.240E+04                      
!                                           Rev / 1.135E+10    0.91  -2.638E+04 /                    
 CO/ 0.75/CO2/ 1.50/H2O/ 6.50/O2/ 0.40/AR/ 0.35/N2/ 0.40/                                           
 O+CH3=H+CH2O                                    4.600E+13    0.00   0.000E+00                      
!                                           Rev / 9.484E+15   -0.33   7.059E+04 /                    
 O+CH3=H+CO+H2                                   3.800E+13    0.00   0.000E+00                      
!                                           Rev / 4.708E+09    1.13   6.640E+04 /                    
 CH3+O2=OH+CH2O                                  3.400E+11    0.00   8.933E+03                      
!                                           Rev / 1.736E+11    0.08   6.234E+04 /                    
 OH+CH3=H+CH3O                                   1.260E+14    0.00   1.548E+04                      
!                                           Rev / 9.589E+19   -1.18   5.721E+03 /                    
 HO2+CH3=OH+CH3O                                 1.800E+13    0.00   0.000E+00                      
!                                           Rev / 1.461E+15   -0.34   2.508E+04 /                    
 H+CH3=CH4                                       1.390E+30   -4.90   7.837E+03                      
!                                           Rev / 9.560E+34   -5.66   1.150E+05 /                    
 2CH3=>C2H4+H2                                   2.000E+16    0.00   3.201E+04                      
 HO2+CH3=CH4+O2                                  3.600E+12    0.00   0.000E+00                      
!                                           Rev / 5.717E+15   -0.33   5.675E+04 /                    
 CH3O(+M)=H+CH2O(+M)                             5.450E+13    0.00   1.350E+04                      
      LOW /   2.344E+25   -2.70   3.060E+04   /                                                     
 CO/ 1.90/CO2/ 3.80/H2/ 2.50/H2O/12.00/                                                             
 H+CH3O=CH2O+H2                                  1.800E+13    0.00   0.000E+00                      
!                                           Rev / 6.923E+09    0.91   8.209E+04 /                    
 CH3O+O2=HO2+CH2O                                4.000E+10    0.00   2.126E+03                      
!                                           Rev / 2.515E+08    0.43   3.045E+04 /                    
 O+CH3O=CH3+O2                                   1.100E+13    0.00   0.000E+00                      
!                                           Rev / 5.837E+09    0.77   2.694E+04 /                    
 O+CH3O=OH+CH2O                                  1.400E+12    0.00   0.000E+00                      
!                                           Rev / 3.793E+08    0.85   8.035E+04 /                    
 CH3O2+M=>CH3+O2+M                               7.240E+16    0.00   2.654E+04                      
 CO/ 0.75/CO2/ 1.50/H2O/ 6.50/O2/ 0.40/AR/ 0.35/N2/ 0.40/                                           
 CH3+O2+M=>CH3O2+M                               1.410E+16    0.00  -1.099E+03                      
 CO/ 0.75/CO2/ 1.50/H2O/ 6.50/O2/ 0.40/AR/ 0.35/N2/ 0.40/                                           
 CH2O+CH3O2=>HCO+CH3O2H                          1.300E+11    0.00   9.004E+03                      
 HCO+CH3O2H=>CH2O+CH3O2                          2.500E+10    0.00   1.010E+04                      
 CH3+CH3O2=>2CH3O                                3.800E+12    0.00  -1.194E+03                      
 2CH3O=>CH3+CH3O2                                2.000E+10    0.00   0.000E+00                      
 HO2+CH3O2=>CH3O2H+O2                            4.600E+10    0.00  -2.603E+03                      
 CH3O2H+O2=>HO2+CH3O2                            3.000E+12    0.00   3.900E+04                      
 2CH3O2=>2CH3O+O2                                3.700E+12    0.00   2.197E+03                      
 H+CH4=CH3+H2                                    1.300E+04    3.00   8.981E+03                      
!                                           Rev / 5.006E-01    3.82   5.997E+03 /                    
 O+CH4=OH+CH3                                    6.923E+08    1.56   8.479E+03                      
!                                           Rev / 1.878E+04    2.32   3.754E+03 /                    
 OH+CH4=CH3+H2O                                  1.600E+07    1.83   2.771E+03                      
!                                           Rev / 3.945E+04    2.33   1.573E+04 /                    
 HO2+CH4=H2O2+CH3                                1.100E+13    0.00   2.463E+04                      
!                                           Rev / 5.244E+11    0.03   5.379E+03 /                    
 CH2-3+CH4=2CH3                                  1.300E+13    0.00   9.530E+03                      
!                                           Rev / 4.113E+12   -0.06   1.369E+04 /                    
 CH+CH4=H+C2H4                                   3.000E+13    0.00  -4.060E+02                      
!                                           Rev / 5.974E+17   -0.86   5.918E+04 /                    
 CH3O2H=OH+CH3O                                  4.000E+15    0.00   4.311E+04                      
!                                           Rev / 1.131E+08    1.79  -2.550E+03 /                    
 OH+CH3O2H=CH3O2+H2O                             2.600E+12    0.00   0.000E+00                      
!                                           Rev / 1.574E+13    0.02   2.943E+04 /                    
 O+C2H=CH+CO                                     1.000E+13    0.00   0.000E+00                      
!                                           Rev / 5.677E+10    0.56   7.875E+04 /                    
 C2H+O2=O+HCCO                                   3.000E+13    0.00   0.000E+00                      
!                                           Rev / 2.341E+14   -0.43   3.264E+04 /                    
 HCCO=CH+CO                                      5.000E+15    0.00   5.876E+04                      
!                                           Rev / 4.828E+09    1.40  -1.478E+04 /                    
 H+HCCO=CH2-3+CO                                 1.450E+14    0.00   0.000E+00                      
!                                           Rev / 1.036E+09    1.38   2.810E+04 /                    
 O+HCCO=>H+2CO                                   9.600E+13    0.00   0.000E+00                      
 HCCO+O2=>H+CO+CO2                               6.000E+12    0.00   8.598E+02                      
 C2H2+M=H+C2H+M                                  3.600E+16    0.00   1.065E+05                      
!                                           Rev / 2.538E+11    1.05  -2.781E+04 /                    
 CO/ 0.75/CO2/ 1.50/H2O/ 6.50/O2/ 0.40/AR/ 0.35/N2/ 0.40/                                           
 H+C2H2=C2H+H2                                   6.030E+13    0.00   2.780E+04                      
!                                           Rev / 1.126E+09    1.11  -2.325E+03 /                    
 OH+C2H2=C2H+H2O                                 9.000E+13    0.00   1.295E+04                      
!                                           Rev / 1.076E+11    0.79  -1.234E+03 /                    
 O+C2H2=CH2-3+CO                                 2.000E+06    2.10   1.562E+03                      
!                                           Rev / 5.924E-01    3.68   4.762E+04 /                    
 O+C2H2=H+HCCO                                   5.200E+06    2.10   1.562E+03                      
!                                           Rev / 2.155E+05    2.31   1.951E+04 /                    
 C2H2+O2=OH+HCCO                                 2.000E+08    1.50   3.009E+04                      
!                                           Rev / 2.053E+04    2.12   3.086E+04 /                    
 C2H+C2H2=H+C4H2                                 3.000E+14    0.00   0.000E+00                      
!                                           Rev / 4.754E+19   -1.12   3.121E+04 /                    
 CH2CO+M=CH2-3+CO+M                              1.000E+16    0.00   5.923E+04                      
!                                           Rev / 7.599E+05    2.18  -2.147E+04 /                    
 CO/ 0.75/CO2/ 1.50/H2O/ 6.50/O2/ 0.40/AR/ 0.35/N2/ 0.40/                                           
 H+CH2CO=CH3+CO                                  1.800E+13    0.00   3.368E+03                      
!                                           Rev / 2.976E+07    1.35   3.401E+04 /                    
 O+CH2CO=2HCO                                    2.300E+12    0.00   1.361E+03                      
!                                           Rev / 2.532E+06    1.19   2.681E+04 /                    
 OH+CH2CO=HCO+CH2O                               1.000E+13    0.00   0.000E+00                      
!                                           Rev / 2.180E+11    0.41   1.508E+04 /                    
 C2H3=H+C2H2                                     9.500E+44   -9.50   5.246E+04                      
!                                           Rev / 2.553E+44   -9.42   1.329E+04 /                    
 H+C2H3=C2H2+H2                                  1.200E+13    0.00   0.000E+00                      
!                                           Rev / 8.540E+12    0.13   6.503E+04 /                    
 O+C2H3=OH+C2H2                                  1.000E+13    0.00   0.000E+00                      
!                                           Rev / 5.013E+12    0.07   6.329E+04 /                    
 OH+C2H3=C2H2+H2O                                5.000E+13    0.00   0.000E+00                      
!                                           Rev / 2.278E+15   -0.19   8.097E+04 /                    
 O+C2H3=CH3+CO                                   1.000E+13    0.00   0.000E+00                      
!                                           Rev / 1.732E+10    0.83   1.182E+05 /                    
 O+C2H3=HCO+CH2-3                                1.000E+13    0.00   0.000E+00                      
!                                           Rev / 9.495E+07    1.04   2.318E+04 /                    
 C2H3+O2=HCO+CH2O                                4.580E+16   -1.39   1.013E+03                      
!                                           Rev / 2.589E+15   -1.09   8.648E+04 /                    
 C2H3+O2=O+CH2CHO                                3.030E+11    0.29   1.099E+01                      
!                                           Rev / 3.966E+13   -0.34   2.990E+03 /                    
 C2H3+O2=HO2+C2H2                                1.337E+06    1.61  -3.838E+02                      
!                                           Rev / 1.556E+07    1.26   1.088E+04 /                    
 CH3CO=CH3+CO                                    7.320E+29   -5.40   2.350E+04                      
!                                           Rev / 1.423E+22   -3.60   7.475E+03 /                    
 H+CH3CO=CH2CO+H2                                2.000E+13    0.00   0.000E+00                      
!                                           Rev / 6.228E+11    0.50   5.753E+04 /                    
 H+CH2CHO=CH2CO+H2                               2.000E+13    0.00   0.000E+00                      
!                                           Rev / 5.626E+11    0.57   6.916E+04 /                    
 C2H4+M=C2H2+H2+M                                7.500E+17    0.00   7.949E+04                      
!                                           Rev / 1.695E+12    1.14   3.469E+04 /                    
 CO/ 0.75/CO2/ 1.50/H2O/ 6.50/O2/ 0.40/AR/ 0.35/N2/ 0.40/                                           
 H+C2H3=C2H4                                     8.000E+13    0.00   0.000E+00                      
!                                           Rev / 2.518E+19   -1.01   1.098E+05 /                    
 H+C2H4=C2H3+H2                                  5.400E+14    0.00   1.502E+04                      
!                                           Rev / 4.543E+09    1.06   9.407E+03 /                    
 OH+C2H4=C2H3+H2O                                2.200E+13    0.00   5.947E+03                      
!                                           Rev / 1.185E+10    0.74   1.628E+04 /                    
 O+C2H4=H+CH2CHO                                 4.730E+06    1.88   1.827E+02                      
!                                           Rev / 1.482E+06    1.85   1.299E+04 /                    
 O+C2H4=HCO+CH3                                  8.100E+06    1.88   1.827E+02                      
!                                           Rev / 5.316E+00    3.10   2.489E+04 /                    
 O+C2H4=CH2CO+H2                                 6.800E+05    1.88   1.827E+02                      
!                                           Rev / 5.992E+03    2.42   8.214E+04 /                    
 CH2-1+CH3=H+C2H4                                1.600E+13    0.00  -5.685E+02                      
!                                           Rev / 8.153E+20   -1.55   7.337E+04 /                    
 CH3CHO+M=HCO+CH3+M                              7.000E+15    0.00   8.188E+04                      
!                                           Rev / 3.353E+05    2.09  -5.715E+03 /                    
 CO/ 0.75/CO2/ 1.50/H2O/ 6.50/O2/ 0.40/AR/ 0.35/N2/ 0.40/                                           
 H+CH3CHO=CH3CO+H2                               2.100E+09    1.16   2.412E+03                      
!                                           Rev / 1.149E+05    2.13   1.875E+04 /                    
 H+CH3CHO=CH2CHO+H2                              2.000E+09    1.16   2.412E+03                      
!                                           Rev / 1.211E+05    2.05   7.125E+03 /                    
 O+CH3CHO=OH+CH3CO                               5.000E+12    0.00   1.815E+03                      
!                                           Rev / 1.927E+08    0.91   1.641E+04 /                    
 O+CH3CHO=OH+CH2CHO                              8.000E+11    0.00   1.815E+03                      
!                                           Rev / 3.413E+07    0.84   4.786E+03 /                    