/*--------------------------------*- C++ -*----------------------------------*\
| =========                 |                                                 |
| \\      /  F ield         | OpenFOAM: The Open Source CFD Toolbox           |
|  \\    /   O peration     | Version:  2.4.0                                 |
|   \\  /    A nd           | Web:      www.OpenFOAM.org                      |
|    \\/     M anipulation  |                                                 |
\*---------------------------------------------------------------------------*/
FoamFile
{
    version     2.0;
    format      ascii;
    class       volScalarField;
    location    "0";
    object      sootD;
}
// * * * * * * * * * * * * * * * * * * * * * * * * * * * * * * * * * * * * * //

dimensions      [0 1 0 0 0 0 0];

internalField   uniform 0;

boundaryField
{
    cylinderHead
    {
        type            calculated;
        value           uniform 0;
    }
    liner
    {
        type            calculated;
        value           uniform 0;
    }
    piston
    {
        type            calculated;
        value           uniform 0;
    }
    sideWall
    {
        type            calculated;
        value           uniform 0;
    }
}


// ************************************************************************* //
